<?xml version="1.0" encoding="UTF-8"?>

<!-- generated on 04/23/21 21:48:27 by Eclipse SUMO GUI Version 1.8.0
-->

<configuration xmlns:xsi="http://www.w3.org/2001/XMLSchema-instance" xsi:noNamespaceSchemaLocation="http://sumo.dlr.de/xsd/sumoConfiguration.xsd">

    <input>
        <net-file value="ain_naadja_one.net.xml"/>
        <route-files value="ain_naadja_one.rou.xml"/>
    </input>

</configuration>
