<?xml version="1.0" ?>
<routes xmlns:xsi="http://www.w3.org/2001/XMLSchema-instance" xsi:noNamespaceSchemaLocation="http://sumo.dlr.de/xsd/routes_file.xsd">
	<vType id="veh_passenger" vClass="passenger"/>
	<vType id="veh_emergency" vClass="passenger" color="red" width="2.5"/>
	<vehicle id="veh0" type="veh_passenger" depart="0.0" departLane="best" departSpeed="max">
		<route edges="gneE8 -gneE9"/>
	</vehicle>
	<vehicle id="veh1" type="veh_passenger" depart="1.0" departLane="best" departSpeed="max">
		<route edges="gneE6 -gneE4 -gneE8"/>
	</vehicle>
	<vehicle id="veh2" type="veh_passenger" depart="2.0" departLane="best" departSpeed="max">
		<route edges="gneE9 -gneE8"/>
	</vehicle>
	<vehicle id="veh3" type="veh_passenger" depart="3.0" departLane="best" departSpeed="max">
		<route edges="gneE5 -gneE6"/>
	</vehicle>
	<vehicle id="veh4" type="veh_passenger" depart="4.0" departLane="best" departSpeed="max">
		<route edges="gneE5 -gneE4 -gneE8"/>
	</vehicle>
	<vehicle id="veh5" type="veh_passenger" depart="5.0" departLane="best" departSpeed="max">
		<route edges="gneE5 -gneE6"/>
	</vehicle>
	<vehicle id="veh6" type="veh_passenger" depart="6.0" departLane="best" departSpeed="max">
		<route edges="gneE5 -gneE6"/>
	</vehicle>
	<vehicle id="veh7" type="veh_passenger" depart="7.0" departLane="best" departSpeed="max">
		<route edges="gneE5 -gneE6"/>
	</vehicle>
	<vehicle id="veh8" type="veh_passenger" depart="10.0" departLane="best" departSpeed="max">
		<route edges="gneE8 gneE4 -gneE5"/>
	</vehicle>
	<vehicle id="veh9" type="veh_passenger" depart="11.0" departLane="best" departSpeed="max">
		<route edges="gneE8 gneE4 -gneE5"/>
	</vehicle>
	<vehicle id="veh10" type="veh_passenger" depart="11.0" departLane="best" departSpeed="max">
		<route edges="gneE6 -gneE5"/>
	</vehicle>
	<vehicle id="veh11" type="veh_passenger" depart="11.0" departLane="best" departSpeed="max">
		<route edges="gneE5 -gneE6"/>
	</vehicle>
	<vehicle id="veh12" type="veh_passenger" depart="13.0" departLane="best" departSpeed="max">
		<route edges="gneE5 -gneE4 -gneE8"/>
	</vehicle>
	<vehicle id="veh13" type="veh_passenger" depart="14.0" departLane="best" departSpeed="max">
		<route edges="gneE8 -gneE9"/>
	</vehicle>
	<vehicle id="veh14" type="veh_passenger" depart="15.0" departLane="best" departSpeed="max">
		<route edges="gneE8 gneE4 -gneE5"/>
	</vehicle>
	<vehicle id="veh15" type="veh_passenger" depart="15.0" departLane="best" departSpeed="max">
		<route edges="gneE5 -gneE6"/>
	</vehicle>
	<vehicle id="veh16" type="veh_passenger" depart="16.0" departLane="best" departSpeed="max">
		<route edges="gneE5 -gneE6"/>
	</vehicle>
	<vehicle id="veh17" type="veh_passenger" depart="17.0" departLane="best" departSpeed="max">
		<route edges="gneE6 -gneE4 -gneE9"/>
	</vehicle>
	<vehicle id="veh18" type="veh_passenger" depart="19.0" departLane="best" departSpeed="max">
		<route edges="gneE9 -gneE8"/>
	</vehicle>
	<vehicle id="veh19" type="veh_passenger" depart="19.0" departLane="best" departSpeed="max">
		<route edges="gneE5 -gneE4 -gneE8"/>
	</vehicle>
	<vehicle id="veh20" type="veh_passenger" depart="20.0" departLane="best" departSpeed="max">
		<route edges="gneE5 -gneE6"/>
	</vehicle>
	<vehicle id="veh21" type="veh_passenger" depart="20.0" departLane="best" departSpeed="max">
		<route edges="gneE8 gneE4 -gneE5"/>
	</vehicle>
	<vehicle id="veh22" type="veh_passenger" depart="23.0" departLane="best" departSpeed="max">
		<route edges="gneE9 gneE4 -gneE5"/>
	</vehicle>
	<vehicle id="veh23" type="veh_passenger" depart="23.0" departLane="best" departSpeed="max">
		<route edges="gneE8 gneE4 -gneE5"/>
	</vehicle>
	<vehicle id="veh24" type="veh_passenger" depart="25.0" departLane="best" departSpeed="max">
		<route edges="gneE8 -gneE9"/>
	</vehicle>
	<vehicle id="veh25" type="veh_passenger" depart="29.0" departLane="best" departSpeed="max">
		<route edges="gneE8 -gneE9"/>
	</vehicle>
	<vehicle id="veh26" type="veh_passenger" depart="29.0" departLane="best" departSpeed="max">
		<route edges="gneE9 -gneE8"/>
	</vehicle>
	<vehicle id="veh27" type="veh_passenger" depart="30.0" departLane="best" departSpeed="max">
		<route edges="gneE6 -gneE5"/>
	</vehicle>
	<vehicle id="veh28" type="veh_passenger" depart="35.0" departLane="best" departSpeed="max">
		<route edges="gneE5 -gneE6"/>
	</vehicle>
	<vehicle id="veh29" type="veh_passenger" depart="35.0" departLane="best" departSpeed="max">
		<route edges="gneE5 -gneE6"/>
	</vehicle>
	<vehicle id="veh30" type="veh_passenger" depart="35.0" departLane="best" departSpeed="max">
		<route edges="gneE9 gneE4 -gneE5"/>
	</vehicle>
	<vehicle id="veh31" type="veh_passenger" depart="37.0" departLane="best" departSpeed="max">
		<route edges="gneE5 -gneE6"/>
	</vehicle>
	<vehicle id="veh32" type="veh_passenger" depart="37.0" departLane="best" departSpeed="max">
		<route edges="gneE5 -gneE6"/>
	</vehicle>
	<vehicle id="veh33" type="veh_passenger" depart="37.0" departLane="best" departSpeed="max">
		<route edges="gneE5 -gneE6"/>
	</vehicle>
	<vehicle id="veh34" type="veh_passenger" depart="38.0" departLane="best" departSpeed="max">
		<route edges="gneE8 gneE4 -gneE5"/>
	</vehicle>
	<vehicle id="veh35" type="veh_passenger" depart="39.0" departLane="best" departSpeed="max">
		<route edges="gneE9 -gneE8"/>
	</vehicle>
	<vehicle id="veh36" type="veh_passenger" depart="40.0" departLane="best" departSpeed="max">
		<route edges="gneE9 gneE4 -gneE5"/>
	</vehicle>
	<vehicle id="veh37" type="veh_passenger" depart="43.0" departLane="best" departSpeed="max">
		<route edges="gneE8 gneE4 -gneE5"/>
	</vehicle>
	<vehicle id="veh38" type="veh_passenger" depart="45.0" departLane="best" departSpeed="max">
		<route edges="gneE8 gneE4 -gneE5"/>
	</vehicle>
	<vehicle id="veh39" type="veh_passenger" depart="48.0" departLane="best" departSpeed="max">
		<route edges="gneE5 -gneE6"/>
	</vehicle>
	<vehicle id="veh40" type="veh_passenger" depart="48.0" departLane="best" departSpeed="max">
		<route edges="gneE6 -gneE4 -gneE9"/>
	</vehicle>
	<vehicle id="veh41" type="veh_passenger" depart="48.0" departLane="best" departSpeed="max">
		<route edges="gneE5 -gneE6"/>
	</vehicle>
	<vehicle id="veh42" type="veh_passenger" depart="49.0" departLane="best" departSpeed="max">
		<route edges="gneE8 -gneE9"/>
	</vehicle>
	<vehicle id="veh43" type="veh_passenger" depart="51.0" departLane="best" departSpeed="max">
		<route edges="gneE5 -gneE4 -gneE8"/>
	</vehicle>
	<vehicle id="veh44" type="veh_passenger" depart="52.0" departLane="best" departSpeed="max">
		<route edges="gneE6 -gneE5"/>
	</vehicle>
	<vehicle id="veh45" type="veh_passenger" depart="54.0" departLane="best" departSpeed="max">
		<route edges="gneE6 -gneE4 -gneE9"/>
	</vehicle>
	<vehicle id="veh46" type="veh_emergency" depart="55.0" departLane="best" departSpeed="max">
		<route edges="gneE9 gneE4 -gneE5"/>
	</vehicle>
	<vehicle id="veh47" type="veh_passenger" depart="59.0" departLane="best" departSpeed="max">
		<route edges="gneE5 -gneE4 -gneE8"/>
	</vehicle>
	<vehicle id="veh48" type="veh_passenger" depart="59.0" departLane="best" departSpeed="max">
		<route edges="gneE6 -gneE4 -gneE8"/>
	</vehicle>
	<vehicle id="veh49" type="veh_passenger" depart="60.0" departLane="best" departSpeed="max">
		<route edges="gneE8 gneE4 -gneE5"/>
	</vehicle>
	<vehicle id="veh50" type="veh_passenger" depart="61.0" departLane="best" departSpeed="max">
		<route edges="gneE9 gneE4 -gneE5"/>
	</vehicle>
	<vehicle id="veh51" type="veh_passenger" depart="61.0" departLane="best" departSpeed="max">
		<route edges="gneE8 gneE4 -gneE5"/>
	</vehicle>
	<vehicle id="veh52" type="veh_passenger" depart="62.0" departLane="best" departSpeed="max">
		<route edges="gneE8 -gneE9"/>
	</vehicle>
	<vehicle id="veh53" type="veh_passenger" depart="63.0" departLane="best" departSpeed="max">
		<route edges="gneE5 -gneE4 -gneE9"/>
	</vehicle>
	<vehicle id="veh54" type="veh_passenger" depart="63.0" departLane="best" departSpeed="max">
		<route edges="gneE8 gneE4 -gneE5"/>
	</vehicle>
	<vehicle id="veh55" type="veh_passenger" depart="63.0" departLane="best" departSpeed="max">
		<route edges="gneE8 gneE4 -gneE5"/>
	</vehicle>
	<vehicle id="veh56" type="veh_passenger" depart="65.0" departLane="best" departSpeed="max">
		<route edges="gneE6 -gneE4 -gneE9"/>
	</vehicle>
	<vehicle id="veh57" type="veh_passenger" depart="67.0" departLane="best" departSpeed="max">
		<route edges="gneE9 gneE4 -gneE5"/>
	</vehicle>
	<vehicle id="veh58" type="veh_passenger" depart="68.0" departLane="best" departSpeed="max">
		<route edges="gneE8 gneE4 -gneE5"/>
	</vehicle>
	<vehicle id="veh59" type="veh_passenger" depart="74.0" departLane="best" departSpeed="max">
		<route edges="gneE6 -gneE4 -gneE9"/>
	</vehicle>
	<vehicle id="veh60" type="veh_passenger" depart="74.0" departLane="best" departSpeed="max">
		<route edges="gneE5 -gneE6"/>
	</vehicle>
	<vehicle id="veh61" type="veh_passenger" depart="74.0" departLane="best" departSpeed="max">
		<route edges="gneE5 -gneE4 -gneE9"/>
	</vehicle>
	<vehicle id="veh62" type="veh_passenger" depart="74.0" departLane="best" departSpeed="max">
		<route edges="gneE6 -gneE4 -gneE9"/>
	</vehicle>
	<vehicle id="veh63" type="veh_passenger" depart="79.0" departLane="best" departSpeed="max">
		<route edges="gneE8 gneE4 -gneE5"/>
	</vehicle>
	<vehicle id="veh64" type="veh_passenger" depart="79.0" departLane="best" departSpeed="max">
		<route edges="gneE5 -gneE6"/>
	</vehicle>
	<vehicle id="veh65" type="veh_passenger" depart="81.0" departLane="best" departSpeed="max">
		<route edges="gneE5 -gneE6"/>
	</vehicle>
	<vehicle id="veh66" type="veh_passenger" depart="82.0" departLane="best" departSpeed="max">
		<route edges="gneE9 -gneE8"/>
	</vehicle>
	<vehicle id="veh67" type="veh_passenger" depart="83.0" departLane="best" departSpeed="max">
		<route edges="gneE5 -gneE6"/>
	</vehicle>
	<vehicle id="veh68" type="veh_passenger" depart="86.0" departLane="best" departSpeed="max">
		<route edges="gneE5 -gneE4 -gneE8"/>
	</vehicle>
	<vehicle id="veh69" type="veh_passenger" depart="88.0" departLane="best" departSpeed="max">
		<route edges="gneE5 -gneE6"/>
	</vehicle>
	<vehicle id="veh70" type="veh_passenger" depart="88.0" departLane="best" departSpeed="max">
		<route edges="gneE9 -gneE8"/>
	</vehicle>
	<vehicle id="veh71" type="veh_passenger" depart="91.0" departLane="best" departSpeed="max">
		<route edges="gneE8 -gneE9"/>
	</vehicle>
	<vehicle id="veh72" type="veh_passenger" depart="96.0" departLane="best" departSpeed="max">
		<route edges="gneE5 -gneE4 -gneE8"/>
	</vehicle>
	<vehicle id="veh73" type="veh_passenger" depart="97.0" departLane="best" departSpeed="max">
		<route edges="gneE5 -gneE6"/>
	</vehicle>
	<vehicle id="veh74" type="veh_passenger" depart="99.0" departLane="best" departSpeed="max">
		<route edges="gneE8 gneE4 -gneE5"/>
	</vehicle>
	<vehicle id="veh75" type="veh_passenger" depart="99.0" departLane="best" departSpeed="max">
		<route edges="gneE5 -gneE4 -gneE8"/>
	</vehicle>
	<vehicle id="veh76" type="veh_passenger" depart="99.0" departLane="best" departSpeed="max">
		<route edges="gneE8 -gneE9"/>
	</vehicle>
	<vehicle id="veh77" type="veh_passenger" depart="102.0" departLane="best" departSpeed="max">
		<route edges="gneE8 gneE4 -gneE5"/>
	</vehicle>
	<vehicle id="veh78" type="veh_passenger" depart="102.0" departLane="best" departSpeed="max">
		<route edges="gneE5 -gneE4 -gneE8"/>
	</vehicle>
	<vehicle id="veh79" type="veh_passenger" depart="104.0" departLane="best" departSpeed="max">
		<route edges="gneE9 gneE4 -gneE5"/>
	</vehicle>
	<vehicle id="veh80" type="veh_passenger" depart="107.0" departLane="best" departSpeed="max">
		<route edges="gneE9 gneE4 -gneE5"/>
	</vehicle>
	<vehicle id="veh81" type="veh_passenger" depart="110.0" departLane="best" departSpeed="max">
		<route edges="gneE6 -gneE4 -gneE9"/>
	</vehicle>
	<vehicle id="veh82" type="veh_passenger" depart="110.0" departLane="best" departSpeed="max">
		<route edges="gneE9 -gneE8"/>
	</vehicle>
	<vehicle id="veh83" type="veh_passenger" depart="112.0" departLane="best" departSpeed="max">
		<route edges="gneE8 gneE4 -gneE5"/>
	</vehicle>
	<vehicle id="veh84" type="veh_passenger" depart="112.0" departLane="best" departSpeed="max">
		<route edges="gneE6 -gneE4 -gneE8"/>
	</vehicle>
	<vehicle id="veh85" type="veh_passenger" depart="113.0" departLane="best" departSpeed="max">
		<route edges="gneE6 -gneE4 -gneE8"/>
	</vehicle>
	<vehicle id="veh86" type="veh_passenger" depart="114.0" departLane="best" departSpeed="max">
		<route edges="gneE5 -gneE4 -gneE9"/>
	</vehicle>
	<vehicle id="veh87" type="veh_passenger" depart="115.0" departLane="best" departSpeed="max">
		<route edges="gneE5 -gneE6"/>
	</vehicle>
	<vehicle id="veh88" type="veh_passenger" depart="115.0" departLane="best" departSpeed="max">
		<route edges="gneE6 -gneE5"/>
	</vehicle>
	<vehicle id="veh89" type="veh_passenger" depart="115.0" departLane="best" departSpeed="max">
		<route edges="gneE5 -gneE6"/>
	</vehicle>
	<vehicle id="veh90" type="veh_passenger" depart="116.0" departLane="best" departSpeed="max">
		<route edges="gneE5 -gneE4 -gneE8"/>
	</vehicle>
	<vehicle id="veh91" type="veh_passenger" depart="116.0" departLane="best" departSpeed="max">
		<route edges="gneE9 gneE4 -gneE5"/>
	</vehicle>
	<vehicle id="veh92" type="veh_passenger" depart="118.0" departLane="best" departSpeed="max">
		<route edges="gneE5 -gneE4 -gneE8"/>
	</vehicle>
	<vehicle id="veh93" type="veh_passenger" depart="119.0" departLane="best" departSpeed="max">
		<route edges="gneE8 -gneE9"/>
	</vehicle>
	<vehicle id="veh94" type="veh_passenger" depart="119.0" departLane="best" departSpeed="max">
		<route edges="gneE6 -gneE4 -gneE9"/>
	</vehicle>
	<vehicle id="veh95" type="veh_passenger" depart="122.0" departLane="best" departSpeed="max">
		<route edges="gneE8 gneE4 -gneE5"/>
	</vehicle>
	<vehicle id="veh96" type="veh_passenger" depart="122.0" departLane="best" departSpeed="max">
		<route edges="gneE8 gneE4 -gneE5"/>
	</vehicle>
	<vehicle id="veh97" type="veh_passenger" depart="123.0" departLane="best" departSpeed="max">
		<route edges="gneE8 gneE4 -gneE5"/>
	</vehicle>
	<vehicle id="veh98" type="veh_passenger" depart="127.0" departLane="best" departSpeed="max">
		<route edges="gneE8 gneE4 -gneE5"/>
	</vehicle>
	<vehicle id="veh99" type="veh_passenger" depart="127.0" departLane="best" departSpeed="max">
		<route edges="gneE6 -gneE4 -gneE9"/>
	</vehicle>
	<vehicle id="veh100" type="veh_passenger" depart="127.0" departLane="best" departSpeed="max">
		<route edges="gneE6 -gneE5"/>
	</vehicle>
	<vehicle id="veh101" type="veh_passenger" depart="127.0" departLane="best" departSpeed="max">
		<route edges="gneE8 gneE4 -gneE5"/>
	</vehicle>
	<vehicle id="veh102" type="veh_passenger" depart="128.0" departLane="best" departSpeed="max">
		<route edges="gneE5 -gneE4 -gneE9"/>
	</vehicle>
	<vehicle id="veh103" type="veh_passenger" depart="131.0" departLane="best" departSpeed="max">
		<route edges="gneE5 -gneE6"/>
	</vehicle>
	<vehicle id="veh104" type="veh_passenger" depart="132.0" departLane="best" departSpeed="max">
		<route edges="gneE8 gneE4 -gneE5"/>
	</vehicle>
	<vehicle id="veh105" type="veh_passenger" depart="133.0" departLane="best" departSpeed="max">
		<route edges="gneE5 -gneE4 -gneE8"/>
	</vehicle>
	<vehicle id="veh106" type="veh_passenger" depart="133.0" departLane="best" departSpeed="max">
		<route edges="gneE6 -gneE5"/>
	</vehicle>
	<vehicle id="veh107" type="veh_passenger" depart="134.0" departLane="best" departSpeed="max">
		<route edges="gneE5 -gneE4 -gneE9"/>
	</vehicle>
	<vehicle id="veh108" type="veh_passenger" depart="140.0" departLane="best" departSpeed="max">
		<route edges="gneE8 gneE4 -gneE5"/>
	</vehicle>
	<vehicle id="veh109" type="veh_passenger" depart="141.0" departLane="best" departSpeed="max">
		<route edges="gneE9 gneE4 -gneE5"/>
	</vehicle>
	<vehicle id="veh110" type="veh_passenger" depart="144.0" departLane="best" departSpeed="max">
		<route edges="gneE6 -gneE4 -gneE9"/>
	</vehicle>
	<vehicle id="veh111" type="veh_passenger" depart="147.0" departLane="best" departSpeed="max">
		<route edges="gneE5 -gneE6"/>
	</vehicle>
	<vehicle id="veh112" type="veh_passenger" depart="149.0" departLane="best" departSpeed="max">
		<route edges="gneE5 -gneE6"/>
	</vehicle>
	<vehicle id="veh113" type="veh_passenger" depart="150.0" departLane="best" departSpeed="max">
		<route edges="gneE8 -gneE9"/>
	</vehicle>
	<vehicle id="veh114" type="veh_passenger" depart="150.0" departLane="best" departSpeed="max">
		<route edges="gneE8 -gneE9"/>
	</vehicle>
	<vehicle id="veh115" type="veh_passenger" depart="151.0" departLane="best" departSpeed="max">
		<route edges="gneE8 gneE4 -gneE5"/>
	</vehicle>
	<vehicle id="veh116" type="veh_passenger" depart="151.0" departLane="best" departSpeed="max">
		<route edges="gneE8 -gneE9"/>
	</vehicle>
	<vehicle id="veh117" type="veh_passenger" depart="151.0" departLane="best" departSpeed="max">
		<route edges="gneE5 -gneE6"/>
	</vehicle>
	<vehicle id="veh118" type="veh_passenger" depart="152.0" departLane="best" departSpeed="max">
		<route edges="gneE5 -gneE6"/>
	</vehicle>
	<vehicle id="veh119" type="veh_passenger" depart="153.0" departLane="best" departSpeed="max">
		<route edges="gneE5 -gneE6"/>
	</vehicle>
	<vehicle id="veh120" type="veh_passenger" depart="154.0" departLane="best" departSpeed="max">
		<route edges="gneE8 gneE4 -gneE5"/>
	</vehicle>
	<vehicle id="veh121" type="veh_passenger" depart="155.0" departLane="best" departSpeed="max">
		<route edges="gneE5 -gneE4 -gneE9"/>
	</vehicle>
	<vehicle id="veh122" type="veh_passenger" depart="157.0" departLane="best" departSpeed="max">
		<route edges="gneE5 -gneE6"/>
	</vehicle>
	<vehicle id="veh123" type="veh_passenger" depart="157.0" departLane="best" departSpeed="max">
		<route edges="gneE9 -gneE8"/>
	</vehicle>
	<vehicle id="veh124" type="veh_passenger" depart="157.0" departLane="best" departSpeed="max">
		<route edges="gneE5 -gneE6"/>
	</vehicle>
	<vehicle id="veh125" type="veh_passenger" depart="157.0" departLane="best" departSpeed="max">
		<route edges="gneE5 -gneE4 -gneE9"/>
	</vehicle>
	<vehicle id="veh126" type="veh_passenger" depart="161.0" departLane="best" departSpeed="max">
		<route edges="gneE5 -gneE6"/>
	</vehicle>
	<vehicle id="veh127" type="veh_passenger" depart="162.0" departLane="best" departSpeed="max">
		<route edges="gneE8 gneE4 -gneE5"/>
	</vehicle>
	<vehicle id="veh128" type="veh_passenger" depart="162.0" departLane="best" departSpeed="max">
		<route edges="gneE8 gneE4 -gneE5"/>
	</vehicle>
	<vehicle id="veh129" type="veh_passenger" depart="164.0" departLane="best" departSpeed="max">
		<route edges="gneE5 -gneE6"/>
	</vehicle>
	<vehicle id="veh130" type="veh_passenger" depart="164.0" departLane="best" departSpeed="max">
		<route edges="gneE8 -gneE9"/>
	</vehicle>
	<vehicle id="veh131" type="veh_passenger" depart="165.0" departLane="best" departSpeed="max">
		<route edges="gneE5 -gneE6"/>
	</vehicle>
	<vehicle id="veh132" type="veh_passenger" depart="166.0" departLane="best" departSpeed="max">
		<route edges="gneE8 gneE4 -gneE5"/>
	</vehicle>
	<vehicle id="veh133" type="veh_passenger" depart="166.0" departLane="best" departSpeed="max">
		<route edges="gneE9 -gneE8"/>
	</vehicle>
	<vehicle id="veh134" type="veh_passenger" depart="167.0" departLane="best" departSpeed="max">
		<route edges="gneE8 -gneE9"/>
	</vehicle>
	<vehicle id="veh135" type="veh_passenger" depart="169.0" departLane="best" departSpeed="max">
		<route edges="gneE5 -gneE6"/>
	</vehicle>
	<vehicle id="veh136" type="veh_passenger" depart="169.0" departLane="best" departSpeed="max">
		<route edges="gneE6 -gneE4 -gneE9"/>
	</vehicle>
	<vehicle id="veh137" type="veh_passenger" depart="170.0" departLane="best" departSpeed="max">
		<route edges="gneE5 -gneE6"/>
	</vehicle>
	<vehicle id="veh138" type="veh_passenger" depart="172.0" departLane="best" departSpeed="max">
		<route edges="gneE5 -gneE6"/>
	</vehicle>
	<vehicle id="veh139" type="veh_passenger" depart="172.0" departLane="best" departSpeed="max">
		<route edges="gneE8 gneE4 -gneE5"/>
	</vehicle>
	<vehicle id="veh140" type="veh_passenger" depart="173.0" departLane="best" departSpeed="max">
		<route edges="gneE5 -gneE6"/>
	</vehicle>
	<vehicle id="veh141" type="veh_passenger" depart="173.0" departLane="best" departSpeed="max">
		<route edges="gneE6 -gneE4 -gneE8"/>
	</vehicle>
	<vehicle id="veh142" type="veh_passenger" depart="174.0" departLane="best" departSpeed="max">
		<route edges="gneE5 -gneE6"/>
	</vehicle>
	<vehicle id="veh143" type="veh_passenger" depart="176.0" departLane="best" departSpeed="max">
		<route edges="gneE9 gneE4 -gneE5"/>
	</vehicle>
	<vehicle id="veh144" type="veh_passenger" depart="177.0" departLane="best" departSpeed="max">
		<route edges="gneE6 -gneE4 -gneE8"/>
	</vehicle>
	<vehicle id="veh145" type="veh_passenger" depart="177.0" departLane="best" departSpeed="max">
		<route edges="gneE8 gneE4 -gneE5"/>
	</vehicle>
	<vehicle id="veh146" type="veh_passenger" depart="177.0" departLane="best" departSpeed="max">
		<route edges="gneE5 -gneE6"/>
	</vehicle>
	<vehicle id="veh147" type="veh_passenger" depart="178.0" departLane="best" departSpeed="max">
		<route edges="gneE6 -gneE4 -gneE9"/>
	</vehicle>
	<vehicle id="veh148" type="veh_passenger" depart="180.0" departLane="best" departSpeed="max">
		<route edges="gneE5 -gneE6"/>
	</vehicle>
	<vehicle id="veh149" type="veh_passenger" depart="181.0" departLane="best" departSpeed="max">
		<route edges="gneE8 gneE4 -gneE5"/>
	</vehicle>
	<vehicle id="veh150" type="veh_passenger" depart="183.0" departLane="best" departSpeed="max">
		<route edges="gneE5 -gneE4 -gneE9"/>
	</vehicle>
	<vehicle id="veh151" type="veh_passenger" depart="184.0" departLane="best" departSpeed="max">
		<route edges="gneE5 -gneE4 -gneE9"/>
	</vehicle>
	<vehicle id="veh152" type="veh_passenger" depart="185.0" departLane="best" departSpeed="max">
		<route edges="gneE6 -gneE4 -gneE8"/>
	</vehicle>
	<vehicle id="veh153" type="veh_passenger" depart="185.0" departLane="best" departSpeed="max">
		<route edges="gneE9 gneE4 -gneE5"/>
	</vehicle>
	<vehicle id="veh154" type="veh_passenger" depart="189.0" departLane="best" departSpeed="max">
		<route edges="gneE5 -gneE6"/>
	</vehicle>
	<vehicle id="veh155" type="veh_passenger" depart="190.0" departLane="best" departSpeed="max">
		<route edges="gneE5 -gneE4 -gneE9"/>
	</vehicle>
	<vehicle id="veh156" type="veh_passenger" depart="190.0" departLane="best" departSpeed="max">
		<route edges="gneE5 -gneE6"/>
	</vehicle>
	<vehicle id="veh157" type="veh_passenger" depart="193.0" departLane="best" departSpeed="max">
		<route edges="gneE5 -gneE6"/>
	</vehicle>
	<vehicle id="veh158" type="veh_passenger" depart="196.0" departLane="best" departSpeed="max">
		<route edges="gneE9 -gneE8"/>
	</vehicle>
	<vehicle id="veh159" type="veh_passenger" depart="196.0" departLane="best" departSpeed="max">
		<route edges="gneE8 gneE4 -gneE5"/>
	</vehicle>
	<vehicle id="veh160" type="veh_passenger" depart="201.0" departLane="best" departSpeed="max">
		<route edges="gneE8 gneE4 -gneE5"/>
	</vehicle>
	<vehicle id="veh161" type="veh_passenger" depart="202.0" departLane="best" departSpeed="max">
		<route edges="gneE6 -gneE4 -gneE9"/>
	</vehicle>
	<vehicle id="veh162" type="veh_passenger" depart="203.0" departLane="best" departSpeed="max">
		<route edges="gneE6 -gneE4 -gneE8"/>
	</vehicle>
	<vehicle id="veh163" type="veh_passenger" depart="204.0" departLane="best" departSpeed="max">
		<route edges="gneE9 gneE4 -gneE5"/>
	</vehicle>
	<vehicle id="veh164" type="veh_passenger" depart="204.0" departLane="best" departSpeed="max">
		<route edges="gneE6 -gneE5"/>
	</vehicle>
	<vehicle id="veh165" type="veh_passenger" depart="207.0" departLane="best" departSpeed="max">
		<route edges="gneE5 -gneE6"/>
	</vehicle>
	<vehicle id="veh166" type="veh_passenger" depart="207.0" departLane="best" departSpeed="max">
		<route edges="gneE9 -gneE8"/>
	</vehicle>
	<vehicle id="veh167" type="veh_passenger" depart="208.0" departLane="best" departSpeed="max">
		<route edges="gneE6 -gneE4 -gneE8"/>
	</vehicle>
	<vehicle id="veh168" type="veh_passenger" depart="210.0" departLane="best" departSpeed="max">
		<route edges="gneE5 -gneE6"/>
	</vehicle>
	<vehicle id="veh169" type="veh_passenger" depart="212.0" departLane="best" departSpeed="max">
		<route edges="gneE9 gneE4 -gneE5"/>
	</vehicle>
	<vehicle id="veh170" type="veh_passenger" depart="213.0" departLane="best" departSpeed="max">
		<route edges="gneE9 gneE4 -gneE5"/>
	</vehicle>
	<vehicle id="veh171" type="veh_passenger" depart="215.0" departLane="best" departSpeed="max">
		<route edges="gneE9 -gneE8"/>
	</vehicle>
	<vehicle id="veh172" type="veh_passenger" depart="216.0" departLane="best" departSpeed="max">
		<route edges="gneE5 -gneE6"/>
	</vehicle>
	<vehicle id="veh173" type="veh_passenger" depart="220.0" departLane="best" departSpeed="max">
		<route edges="gneE5 -gneE6"/>
	</vehicle>
	<vehicle id="veh174" type="veh_passenger" depart="221.0" departLane="best" departSpeed="max">
		<route edges="gneE8 gneE4 -gneE5"/>
	</vehicle>
	<vehicle id="veh175" type="veh_passenger" depart="222.0" departLane="best" departSpeed="max">
		<route edges="gneE9 gneE4 -gneE5"/>
	</vehicle>
	<vehicle id="veh176" type="veh_passenger" depart="223.0" departLane="best" departSpeed="max">
		<route edges="gneE5 -gneE4 -gneE8"/>
	</vehicle>
	<vehicle id="veh177" type="veh_passenger" depart="225.0" departLane="best" departSpeed="max">
		<route edges="gneE9 -gneE8"/>
	</vehicle>
	<vehicle id="veh178" type="veh_passenger" depart="226.0" departLane="best" departSpeed="max">
		<route edges="gneE5 -gneE6"/>
	</vehicle>
	<vehicle id="veh179" type="veh_passenger" depart="228.0" departLane="best" departSpeed="max">
		<route edges="gneE9 -gneE8"/>
	</vehicle>
	<vehicle id="veh180" type="veh_passenger" depart="230.0" departLane="best" departSpeed="max">
		<route edges="gneE9 -gneE8"/>
	</vehicle>
	<vehicle id="veh181" type="veh_passenger" depart="232.0" departLane="best" departSpeed="max">
		<route edges="gneE5 -gneE6"/>
	</vehicle>
	<vehicle id="veh182" type="veh_passenger" depart="232.0" departLane="best" departSpeed="max">
		<route edges="gneE6 -gneE4 -gneE8"/>
	</vehicle>
	<vehicle id="veh183" type="veh_passenger" depart="235.0" departLane="best" departSpeed="max">
		<route edges="gneE8 gneE4 -gneE5"/>
	</vehicle>
	<vehicle id="veh184" type="veh_passenger" depart="236.0" departLane="best" departSpeed="max">
		<route edges="gneE8 gneE4 -gneE5"/>
	</vehicle>
	<vehicle id="veh185" type="veh_passenger" depart="239.0" departLane="best" departSpeed="max">
		<route edges="gneE5 -gneE6"/>
	</vehicle>
	<vehicle id="veh186" type="veh_passenger" depart="240.0" departLane="best" departSpeed="max">
		<route edges="gneE8 gneE4 -gneE5"/>
	</vehicle>
	<vehicle id="veh187" type="veh_passenger" depart="240.0" departLane="best" departSpeed="max">
		<route edges="gneE5 -gneE6"/>
	</vehicle>
	<vehicle id="veh188" type="veh_passenger" depart="242.0" departLane="best" departSpeed="max">
		<route edges="gneE6 -gneE4 -gneE8"/>
	</vehicle>
	<vehicle id="veh189" type="veh_passenger" depart="244.0" departLane="best" departSpeed="max">
		<route edges="gneE8 gneE4 -gneE5"/>
	</vehicle>
	<vehicle id="veh190" type="veh_passenger" depart="245.0" departLane="best" departSpeed="max">
		<route edges="gneE5 -gneE4 -gneE8"/>
	</vehicle>
	<vehicle id="veh191" type="veh_passenger" depart="245.0" departLane="best" departSpeed="max">
		<route edges="gneE8 -gneE9"/>
	</vehicle>
	<vehicle id="veh192" type="veh_passenger" depart="246.0" departLane="best" departSpeed="max">
		<route edges="gneE8 gneE4 -gneE5"/>
	</vehicle>
	<vehicle id="veh193" type="veh_passenger" depart="246.0" departLane="best" departSpeed="max">
		<route edges="gneE9 -gneE8"/>
	</vehicle>
	<vehicle id="veh194" type="veh_passenger" depart="247.0" departLane="best" departSpeed="max">
		<route edges="gneE8 gneE4 -gneE5"/>
	</vehicle>
	<vehicle id="veh195" type="veh_passenger" depart="250.0" departLane="best" departSpeed="max">
		<route edges="gneE5 -gneE6"/>
	</vehicle>
	<vehicle id="veh196" type="veh_passenger" depart="251.0" departLane="best" departSpeed="max">
		<route edges="gneE5 -gneE6"/>
	</vehicle>
	<vehicle id="veh197" type="veh_passenger" depart="251.0" departLane="best" departSpeed="max">
		<route edges="gneE9 gneE4 -gneE5"/>
	</vehicle>
	<vehicle id="veh198" type="veh_passenger" depart="252.0" departLane="best" departSpeed="max">
		<route edges="gneE8 -gneE9"/>
	</vehicle>
	<vehicle id="veh199" type="veh_passenger" depart="253.0" departLane="best" departSpeed="max">
		<route edges="gneE5 -gneE6"/>
	</vehicle>
	<vehicle id="veh200" type="veh_passenger" depart="254.0" departLane="best" departSpeed="max">
		<route edges="gneE8 gneE4 -gneE5"/>
	</vehicle>
	<vehicle id="veh201" type="veh_passenger" depart="255.0" departLane="best" departSpeed="max">
		<route edges="gneE5 -gneE6"/>
	</vehicle>
	<vehicle id="veh202" type="veh_passenger" depart="255.0" departLane="best" departSpeed="max">
		<route edges="gneE6 -gneE4 -gneE9"/>
	</vehicle>
	<vehicle id="veh203" type="veh_passenger" depart="256.0" departLane="best" departSpeed="max">
		<route edges="gneE8 gneE4 -gneE5"/>
	</vehicle>
	<vehicle id="veh204" type="veh_passenger" depart="256.0" departLane="best" departSpeed="max">
		<route edges="gneE6 -gneE4 -gneE8"/>
	</vehicle>
	<vehicle id="veh205" type="veh_passenger" depart="257.0" departLane="best" departSpeed="max">
		<route edges="gneE5 -gneE6"/>
	</vehicle>
	<vehicle id="veh206" type="veh_passenger" depart="258.0" departLane="best" departSpeed="max">
		<route edges="gneE8 -gneE9"/>
	</vehicle>
	<vehicle id="veh207" type="veh_passenger" depart="259.0" departLane="best" departSpeed="max">
		<route edges="gneE5 -gneE4 -gneE8"/>
	</vehicle>
	<vehicle id="veh208" type="veh_passenger" depart="260.0" departLane="best" departSpeed="max">
		<route edges="gneE8 gneE4 -gneE5"/>
	</vehicle>
	<vehicle id="veh209" type="veh_passenger" depart="269.0" departLane="best" departSpeed="max">
		<route edges="gneE8 gneE4 -gneE5"/>