<?xml version="1.0" encoding="UTF-8"?>

<!-- generated on 05/21/21 15:47:14 by Eclipse SUMO netedit Version 1.8.0
<configuration xmlns:xsi="http://www.w3.org/2001/XMLSchema-instance" xsi:noNamespaceSchemaLocation="http://sumo.dlr.de/xsd/netconvertConfiguration.xsd">

    <input>
        <sumo-net-file value="C:\Personnal\TFO\TLCS\intersection\ain_naadja.net.xml"/>
    </input>

    <output>
        <output-file value="C:\Personnal\TFO\TLCS\intersection\ain_naadja.net.xml"/>
    </output>

    <processing>
        <geometry.min-radius.fix.railways value="false"/>
        <geometry.max-grade.fix value="false"/>
        <offset.disable-normalization value="true"/>
        <lefthand value="false"/>
    </processing>

    <junctions>
        <no-turnarounds value="true"/>
        <junctions.corner-detail value="5"/>
        <junctions.limit-turn-speed value="5.5"/>
        <rectangular-lane-cut value="false"/>
    </junctions>

    <pedestrian>
        <walkingareas value="false"/>
    </pedestrian>

    <report>
        <aggregate-warnings value="5"/>
    </report>

</configuration>
-->

<net version="1.6" junctionCornerDetail="5" limitTurnSpeed="5.50" xmlns:xsi="http://www.w3.org/2001/XMLSchema-instance" xsi:noNamespaceSchemaLocation="http://sumo.dlr.de/xsd/net_file.xsd">

    <location netOffset="-505735.40,-4061359.33" convBoundary="0.00,0.00,2741.53,3088.79" origBoundary="3.064230,36.697854,3.109919,36.725719" projParameter="+proj=utm +zone=31 +ellps=WGS84 +datum=WGS84 +units=m +no_defs"/>

    <type id="highway.bridleway" priority="1" numLanes="1" speed="2.78" allow="pedestrian" oneway="1" width="2.00"/>
    <type id="highway.bus_guideway" priority="1" numLanes="1" speed="27.78" allow="bus" oneway="1"/>
    <type id="highway.cycleway" priority="1" numLanes="1" speed="8.33" allow="bicycle" oneway="1" width="1.00"/>
    <type id="highway.footway" priority="1" numLanes="1" speed="2.78" allow="pedestrian" oneway="1" width="2.00"/>
    <type id="highway.ford" priority="1" numLanes="1" speed="2.78" allow="army" oneway="1"/>
    <type id="highway.living_street" priority="2" numLanes="1" speed="2.78" disallow="tram rail_urban rail rail_electric rail_fast ship" oneway="1"/>
    <type id="highway.motorway" priority="14" numLanes="2" speed="39.44" allow="private emergency authority army vip passenger hov taxi bus coach delivery truck trailer motorcycle evehicle custom1 custom2" oneway="1"/>
    <type id="highway.motorway_link" priority="9" numLanes="1" speed="22.22" allow="private emergency authority army vip passenger hov taxi bus coach delivery truck trailer motorcycle evehicle custom1 custom2" oneway="1"/>
    <type id="highway.path" priority="1" numLanes="1" speed="2.78" allow="pedestrian bicycle" oneway="1" width="2.00"/>
    <type id="highway.pedestrian" priority="1" numLanes="1" speed="2.78" allow="pedestrian" oneway="1" width="2.00"/>
    <type id="highway.primary" priority="12" numLanes="2" speed="27.78" disallow="tram rail_urban rail rail_electric rail_fast ship" oneway="1"/>
    <type id="highway.primary_link" priority="7" numLanes="1" speed="22.22" disallow="tram rail_urban rail rail_electric rail_fast ship" oneway="1"/>
    <type id="highway.raceway" priority="15" numLanes="2" speed="83.33" allow="vip" oneway="1"/>
    <type id="highway.residential" priority="3" numLanes="1" speed="13.89" disallow="tram rail_urban rail rail_electric rail_fast ship" oneway="1"/>
    <type id="highway.secondary" priority="11" numLanes="1" speed="27.78" disallow="tram rail_urban rail rail_electric rail_fast ship" oneway="1"/>
    <type id="highway.secondary_link" priority="6" numLanes="1" speed="22.22" disallow="tram rail_urban rail rail_electric rail_fast ship" oneway="1"/>
    <type id="highway.service" priority="1" numLanes="1" speed="5.56" allow="pedestrian delivery bicycle" oneway="1"/>
    <type id="highway.stairs" priority="1" numLanes="1" speed="1.39" allow="pedestrian" oneway="1" width="2.00"/>
    <type id="highway.step" priority="1" numLanes="1" speed="1.39" allow="pedestrian" oneway="1" width="2.00"/>
    <type id="highway.steps" priority="1" numLanes="1" speed="1.39" allow="pedestrian" oneway="1" width="2.00"/>
    <type id="highway.tertiary" priority="10" numLanes="1" speed="22.22" disallow="tram rail_urban rail rail_electric rail_fast ship" oneway="1"/>
    <type id="highway.tertiary_link" priority="5" numLanes="1" speed="22.22" disallow="tram rail_urban rail rail_electric rail_fast ship" oneway="1"/>
    <type id="highway.track" priority="1" numLanes="1" speed="5.56" allow="pedestrian motorcycle moped bicycle" oneway="1"/>
    <type id="highway.trunk" priority="13" numLanes="2" speed="27.78" disallow="pedestrian bicycle tram rail_urban rail rail_electric rail_fast ship" oneway="1"/>
    <type id="highway.trunk_link" priority="8" numLanes="1" speed="22.22" disallow="pedestrian bicycle tram rail_urban rail rail_electric rail_fast ship" oneway="1"/>
    <type id="highway.unclassified" priority="4" numLanes="1" speed="13.89" disallow="tram rail_urban rail rail_electric rail_fast ship" oneway="1"/>
    <type id="highway.unsurfaced" priority="1" numLanes="1" speed="8.33" disallow="tram rail_urban rail rail_electric rail_fast ship" oneway="1"/>
    <type id="railway.highspeed" priority="21" numLanes="1" speed="69.44" allow="rail_fast" oneway="1"/>
    <type id="railway.light_rail" priority="19" numLanes="1" speed="27.78" allow="rail_urban" oneway="1"/>
    <type id="railway.preserved" priority="16" numLanes="1" speed="27.78" allow="rail" oneway="1"/>
    <type id="railway.rail" priority="20" numLanes="1" speed="44.44" allow="rail" oneway="1"/>
    <type id="railway.subway" priority="18" numLanes="1" speed="27.78" allow="rail_urban" oneway="1"/>
    <type id="railway.tram" priority="17" numLanes="1" speed="13.89" allow="tram" oneway="1"/>

    <edge id=":gneJ6_0" function="internal">
        <lane id=":gneJ6_0_0" index="0" speed="13.89" length="21.19" shape="2324.10,1918.79 2320.58,1913.82 2318.09,1910.25 2315.21,1907.06 2310.55,1903.25"/>
        <lane id=":gneJ6_0_1" index="1" speed="13.89" length="21.19" shape="2326.62,1916.81 2323.00,1911.76 2320.30,1907.98 2317.21,1904.59 2312.45,1900.68"/>
    </edge>
    <edge id=":gneJ6_2" function="internal">
        <lane id=":gneJ6_2_0" index="0" allow="private emergency authority army vip passenger hov taxi bus coach delivery truck trailer motorcycle evehicle custom1 custom2" speed="10.72" length="26.00" shape="2326.62,1916.81 2322.45,1909.85 2321.01,1903.69 2322.29,1898.34 2326.29,1893.79"/>
    </edge>
    <edge id=":gneJ6_3" function="internal">
        <lane id=":gneJ6_3_0" index="0" allow="private emergency authority army vip passenger hov taxi bus coach delivery truck trailer motorcycle evehicle custom1 custom2" speed="10.18" length="23.35" shape="2326.62,1916.81 2323.30,1910.97 2322.46,1905.60 2324.11,1900.72 2328.24,1896.32"/>
    </edge>
    <edge id=":gneJ6_4" function="internal">
        <lane id=":gneJ6_4_0" index="0" speed="6.54" length="8.82" shape="2334.07,1903.85 2332.47,1905.66 2331.80,1907.56 2332.06,1909.54 2333.25,1911.61"/>
    </edge>
    <edge id=":gneJ6_5" function="internal">
        <lane id=":gneJ6_5_0" index="0" speed="7.36" length="11.45" shape="2334.07,1903.85 2331.40,1906.57 2329.95,1909.10 2329.73,1911.44 2330.73,1913.59"/>
    </edge>
    <edge id=":gneJ6_6" function="internal">
        <lane id=":gneJ6_6_0" index="0" speed="11.15" length="23.63" shape="2332.11,1901.31 2326.56,1905.04 2321.11,1906.60 2315.78,1906.00 2310.55,1903.25"/>
    </edge>
    <edge id=":gneJ6_7" function="internal">
        <lane id=":gneJ6_7_0" index="0" speed="10.64" length="21.46" shape="2332.11,1901.31 2327.61,1904.08 2322.84,1904.89 2317.78,1903.76 2312.45,1900.68"/>
    </edge>
    <edge id=":gneJ6_8" function="internal">
        <lane id=":gneJ6_8_0" index="0" allow="private emergency authority army vip passenger hov taxi bus coach delivery truck trailer motorcycle evehicle custom1 custom2" speed="7.64" length="10.59" shape="2316.61,1895.08 2318.68,1896.19 2320.98,1896.34 2323.52,1895.54 2326.29,1893.79"/>
    </edge>
    <edge id=":gneJ6_9" function="internal">
        <lane id=":gneJ6_9_0" index="0" allow="private emergency authority army vip passenger hov taxi bus coach delivery truck trailer motorcycle evehicle custom1 custom2" speed="8.32" length="12.74" shape="2316.61,1895.08 2319.76,1897.13 2322.74,1898.01 2325.57,1897.75 2328.24,1896.32"/>
    </edge>
    <edge id=":gneJ6_10" function="internal">
        <lane id=":gneJ6_10_0" index="0" speed="13.89" length="23.10" shape="2316.61,1895.08 2321.61,1899.22 2325.52,1902.76 2329.13,1906.60 2333.25,1911.61"/>
        <lane id=":gneJ6_10_1" index="1" speed="13.89" length="23.10" shape="2314.70,1897.65 2319.61,1901.70 2323.31,1905.04 2326.71,1908.67 2330.73,1913.59"/>
    </edge>
    <edge id=":gneJ7_0" function="internal">
        <lane id=":gneJ7_0_0" index="0" speed="13.89" length="22.33" shape="1979.15,1657.60 1974.07,1653.89 1970.08,1651.17 1965.96,1648.64 1960.51,1645.50"/>
        <lane id=":gneJ7_0_1" index="1" speed="13.89" length="22.33" shape="1980.88,1654.90 1975.77,1651.18 1971.73,1648.43 1967.56,1645.87 1962.09,1642.72"/>
    </edge>
    <edge id=":gneJ7_2" function="internal">
        <lane id=":gneJ7_2_0" index="0" speed="13.89" length="22.74" shape="1965.52,1636.69 1984.62,1649.03"/>
    </edge>
    <edge id=":gneJ7_3" function="internal">
        <lane id=":gneJ7_3_0" index="0" speed="10.44" length="23.88" shape="1963.94,1639.48 1969.65,1644.00 1972.86,1648.81 1973.56,1653.90 1971.74,1659.27"/>
    </edge>
    <edge id=":gneJ7_4" function="internal">
        <lane id=":gneJ7_4_0" index="0" speed="9.88" length="21.28" shape="1963.94,1639.48 1968.46,1643.26 1970.81,1647.56 1970.98,1652.36 1968.97,1657.68"/>
    </edge>
    <edge id=":gneJ7_5" function="internal">
        <lane id=":gneJ7_5_0" index="0" speed="6.28" length="9.48" shape="1961.50,1653.39 1962.99,1651.03 1963.33,1648.93 1962.50,1647.09 1960.51,1645.50"/>
    </edge>
    <edge id=":gneJ7_6" function="internal">
        <lane id=":gneJ7_6_0" index="0" speed="7.71" length="14.91" shape="1964.32,1655.00 1966.52,1651.44 1966.89,1648.20 1965.41,1645.29 1962.09,1642.72"/>
    </edge>
    <edge id=":gneJ7_7" function="internal">
        <lane id=":gneJ7_7_0" index="0" speed="10.41" length="23.63" shape="1964.32,1655.00 1969.66,1649.77 1974.82,1647.02 1979.81,1646.78 1984.62,1649.03"/>
    </edge>
    <edge id=":gneJ7_8" function="internal">
        <lane id=":gneJ7_8_0" index="0" speed="9.89" length="21.22" shape="1964.32,1655.00 1968.78,1650.86 1973.36,1648.93 1978.07,1649.22 1982.90,1651.73"/>
    </edge>

    <edge id="-gneE4" from="gneJ7" to="gneJ6" priority="-1" length="400.00" shape="1973.03,1647.09 1979.45,1651.17 2309.88,1895.78 2323.32,1906.74">
        <lane id="-gneE4_0" index="0" speed="13.89" length="400.00" shape="1984.62,1649.03 2312.83,1891.99 2316.61,1895.08"/>
        <lane id="-gneE4_1" index="1" speed="13.89" length="400.00" shape="1982.90,1651.73 2310.86,1894.52 2314.70,1897.65"/>
    </edge>
    <edge id="-gneE5" from="gneJ7" to="gneJ28" priority="-1" length="400.00" shape="1973.03,1647.09 1799.79,1548.75 1613.09,1443.31">
        <lane id="-gneE5_0" index="0" speed="13.89" length="400.00" shape="1960.51,1645.50 1797.43,1552.93 1610.73,1447.49"/>
        <lane id="-gneE5_1" index="1" speed="13.89" length="400.00" shape="1962.09,1642.72 1799.00,1550.14 1612.30,1444.70"/>
    </edge>
    <edge id="-gneE6" from="gneJ7" to="gneJ48" priority="-1" shape="1973.03,1647.09 1965.33,1660.92 1944.33,1699.62 1945.03,1724.75 1950.07,1743.20 1959.81,1758.25 1978.53,1771.89 1995.07,1778.45 2014.67,1780.42 2034.13,1779.88 2093.37,1778.01 2167.65,1754.35 2342.53,1594.16">
        <lane id="-gneE6_0" index="0" speed="13.89" length="556.18" shape="1971.74,1659.27 1969.54,1663.23 1949.16,1700.78 1949.81,1724.04 1954.50,1741.22 1963.36,1754.89 1980.87,1767.65 1996.22,1773.74 2014.84,1775.61 2033.99,1775.08 2092.55,1773.23 2165.19,1750.10 2339.29,1590.62"/>
        <lane id="-gneE6_1" index="1" speed="13.89" length="556.18" shape="1968.97,1657.68 1966.73,1661.69 1945.94,1700.01 1946.62,1724.51 1951.55,1742.54 1960.99,1757.13 1979.31,1770.48 1995.45,1776.88 2014.73,1778.82 2034.08,1778.28 2093.10,1776.42 2166.83,1752.93 2341.45,1592.98"/>
    </edge>
    <edge id="-gneE8" from="gneJ6" to="335013242" priority="-1" length="400.00">
        <lane id="-gneE8_0" index="0" speed="13.89" length="400.00" shape="2333.25,1911.61 2588.42,2236.56"/>
        <lane id="-gneE8_1" index="1" speed="13.89" length="400.00" shape="2330.73,1913.59 2585.90,2238.53"/>
    </edge>
    <edge id="-gneE9" from="gneJ6" to="335013709" priority="9" type="highway.motorway_link" spreadType="center" shape="2324.93,1896.86 2338.24,1886.56 2394.86,1829.35 2424.47,1791.67 2424.98,1756.22 2413.46,1740.75 2389.56,1727.58 2345.58,1729.30">
        <lane id="-gneE9_0" index="0" allow="private emergency authority army vip passenger hov taxi bus coach delivery truck trailer motorcycle evehicle custom1 custom2" speed="22.22" length="268.33" shape="2326.29,1893.79 2337.18,1885.36 2393.66,1828.29 2422.88,1791.11 2423.37,1756.74 2412.38,1741.98 2389.18,1729.20 2345.64,1730.90">
            <param key="origId" value="30367731"/>
        </lane>
        <lane id="-gneE9_1" index="1" allow="private emergency authority army vip passenger hov taxi bus coach delivery truck trailer motorcycle evehicle custom1 custom2" speed="22.22" length="268.33" shape="2328.24,1896.32 2339.30,1887.76 2396.06,1830.41 2426.06,1792.23 2426.59,1755.70 2414.54,1739.52 2389.94,1725.96 2345.52,1727.70">
            <param key="origId" value="30367731"/>
        </lane>
        <param key="origFrom" value="335013884"/>
    </edge>
    <edge id="gneE4" from="gneJ6" to="gneJ7" priority="-1" length="400.00">
        <lane id="gneE4_0" index="0" speed="13.89" length="400.00" shape="2310.55,1903.25 1979.15,1657.60"/>
        <lane id="gneE4_1" index="1" speed="13.89" length="400.00" shape="2312.45,1900.68 1980.88,1654.90"/>
    </edge>
    <edge id="gneE5" from="gneJ29" to="gneJ7" priority="-1" length="400.00">
        <lane id="gneE5_0" index="0" speed="13.89" length="400.00" shape="1633.83,1427.93 1965.52,1636.69"/>
        <lane id="gneE5_1" index="1" speed="13.89" length="400.00" shape="1632.12,1430.64 1963.94,1639.48"/>
    </edge>
    <edge id="gneE6" from="696504597" to="gneJ7" priority="-1" length="400.00" shape="1662.88,1987.58 1962.48,1659.69 1973.03,1647.09">
        <lane id="gneE6_0" index="0" speed="13.89" length="400.00" shape="1659.34,1984.34 1958.87,1656.53 1961.50,1653.39"/>
        <lane id="gneE6_1" index="1" speed="13.89" length="400.00" shape="1661.70,1986.50 1961.28,1658.64 1964.32,1655.00"/>
    </edge>
    <edge id="gneE8" from="gneJ39" to="gneJ6" priority="-1" length="400.00" shape="2577.33,2248.13 2321.33,1907.10">
        <lane id="gneE8_0" index="0" speed="13.89" length="400.00" shape="2573.49,2251.01 2324.10,1918.79"/>
        <lane id="gneE8_1" index="1" speed="13.89" length="400.00" shape="2576.05,2249.09 2326.62,1916.81"/>
    </edge>
    <edge id="gneE9" from="gneJ55" to="gneJ6" priority="-1" length="400.00" shape="2567.32,1787.74 2518.99,1775.53 2495.25,1782.69 2457.01,1801.27 2431.61,1816.19 2387.73,1851.53 2323.32,1906.74">
        <lane id="gneE9_0" index="0" speed="13.89" length="400.00" shape="2566.14,1792.39 2519.10,1780.51 2497.00,1787.17 2459.28,1805.50 2434.35,1820.15 2390.80,1855.22 2334.07,1903.85"/>
        <lane id="gneE9_1" index="1" speed="13.89" length="400.00" shape="2566.93,1789.29 2519.03,1777.19 2495.83,1784.18 2457.77,1802.68 2432.52,1817.51 2388.75,1852.76 2332.11,1901.31"/>
    </edge>

    <tlLogic id="gneJ6" type="static" programID="0" offset="0">
        <phase duration="100" state="GGGGGGrrrrrr"/>
        <phase duration="100" state="yyyyyyrrrrrr"/>
        <phase duration="100" state="rrrrGGGGGGrr"/>
        <phase duration="100" state="rrrryyyyyyrr"/>
        <phase duration="100" state="GGrrrrrrGGGG"/>
        <phase duration="100" state="yyrrrrrryyyy"/>
    </tlLogic>
    <tlLogic id="gneJ7" type="static" programID="0" offset="0">
        <phase duration="100" state="GGGrrrrrr"/>
        <phase duration="100" state="yyyrrrrrr"/>
        <phase duration="100" state="rrGGGGrrr"/>
        <phase duration="100" state="rryyyyrrr"/>
        <phase duration="100" state="rrrrrGGGG"/>
        <phase duration="100" state="rrrrryyyy"/>
    </tlLogic>

    <junction id="2209102704" type="dead_end" x="652.68" y="598.01" incLanes="" intLanes="" shape="652.68,598.01"/>
    <junction id="2268682171" type="dead_end" x="0.00" y="3088.79" incLanes="" intLanes="" shape="0.00,3088.79"/>
    <junction id="288389113" type="dead_end" x="643.22" y="607.23" incLanes="" intLanes="" shape="643.22,607.23"/>
    <junction id="288393033" type="dead_end" x="2741.53" y="0.00" incLanes="" intLanes="" shape="2741.53,0.00"/>
    <junction id="326512502" type="dead_end" x="90.00" y="2890.64" incLanes="" intLanes="" shape="90.00,2890.64"/>
    <junction id="335013242" type="dead_end" x="2584.64" y="2239.52" incLanes="-gneE8_0 -gneE8_1" intLanes="" shape="2589.67,2235.57 2584.64,2239.52"/>
    <junction id="335013709" type="dead_end" x="2345.58" y="1729.30" incLanes="-gneE9_0 -gneE9_1" intLanes="" shape="2345.71,1732.50 2345.45,1726.10"/>
    <junction id="696504597" type="dead_end" x="1662.88" y="1987.58" incLanes="" intLanes="" shape="1662.88,1987.58 1658.16,1983.26"/>
    <junction id="gneJ28" type="dead_end" x="1613.09" y="1443.31" incLanes="-gneE5_0 -gneE5_1" intLanes="" shape="1609.94,1448.88 1613.09,1443.31"/>
    <junction id="gneJ29" type="dead_end" x="1631.27" y="1431.99" incLanes="" intLanes="" shape="1631.27,1431.99 1634.68,1426.57"/>
    <junction id="gneJ39" type="dead_end" x="2577.33" y="2248.13" incLanes="" intLanes="" shape="2577.33,2248.13 2572.21,2251.97"/>
    <junction id="gneJ48" type="dead_end" x="2342.53" y="1594.16" incLanes="-gneE6_0 -gneE6_1" intLanes="" shape="2338.21,1589.44 2342.53,1594.16"/>
    <junction id="gneJ55" type="dead_end" x="2567.32" y="1787.74" incLanes="" intLanes="" shape="2567.32,1787.74 2565.75,1793.95"/>
    <junction id="gneJ6" type="traffic_light" x="2323.32" y="1906.74" incLanes="gneE8_0 gneE8_1 gneE9_0 gneE9_1 -gneE4_0 -gneE4_1" intLanes=":gneJ6_0_0 :gneJ6_0_1 :gneJ6_2_0 :gneJ6_3_0 :gneJ6_4_0 :gneJ6_5_0 :gneJ6_6_0 :gneJ6_7_0 :gneJ6_8_0 :gneJ6_9_0 :gneJ6_10_0 :gneJ6_10_1" shape="2322.84,1919.78 2334.51,1910.62 2333.52,1908.67 2333.46,1907.74 2333.70,1906.84 2334.23,1905.96 2335.05,1905.12 2325.31,1892.52 2322.33,1894.30 2320.99,1894.68 2319.75,1894.73 2318.61,1894.43 2317.57,1893.79 2309.59,1904.53 2312.97,1907.19 2315.29,1909.36 2316.99,1911.38 2318.52,1913.57 2320.32,1916.26">
        <request index="0"  response="000000000000" foes="000011000000" cont="0"/>
        <request index="1"  response="000000000000" foes="000011000000" cont="0"/>
        <request index="2"  response="111100000000" foes="111111000000" cont="0"/>
        <request index="3"  response="111100000000" foes="111111000000" cont="0"/>
        <request index="4"  response="110000000000" foes="110000000000" cont="0"/>
        <request index="5"  response="110000000000" foes="110000000000" cont="0"/>
        <request index="6"  response="110000001111" foes="110000001111" cont="0"/>
        <request index="7"  response="110000001111" foes="110000001111" cont="0"/>
        <request index="8"  response="000000000000" foes="000000001100" cont="0"/>
        <request index="9"  response="000000000000" foes="000000001100" cont="0"/>
        <request index="10" response="000000000000" foes="000011111100" cont="0"/>
        <request index="11" response="000000000000" foes="000011111100" cont="0"/>
    </junction>
    <junction id="gneJ7" type="traffic_light" x="1973.03" y="1647.09" incLanes="gneE4_0 gneE4_1 gneE5_0 gneE5_1 gneE6_0 gneE6_1" intLanes=":gneJ7_0_0 :gneJ7_0_1 :gneJ7_2_0 :gneJ7_3_0 :gneJ7_4_0 :gneJ7_5_0 :gneJ7_6_0 :gneJ7_7_0 :gneJ7_8_0" shape="1978.29,1658.95 1985.48,1647.67 1966.31,1635.30 1959.72,1646.89 1961.30,1648.40 1961.55,1649.30 1961.43,1650.30 1960.94,1651.39 1960.09,1652.58 1973.13,1660.07 1974.57,1658.39 1975.39,1658.04 1976.29,1658.02 1977.25,1658.32">
        <request index="0" response="000000000" foes="111111000" cont="0"/>
        <request index="1" response="000000000" foes="111111000" cont="0"/>
        <request index="2" response="000000000" foes="110000000" cont="0"/>
        <request index="3" response="000000011" foes="110000011" cont="0"/>
        <request index="4" response="000000011" foes="110000011" cont="0"/>
        <request index="5" response="000000011" foes="000000011" cont="0"/>
        <request index="6" response="000000011" foes="000000011" cont="0"/>
        <request index="7" response="000011111" foes="000011111" cont="0"/>
        <request index="8" response="000011111" foes="000011111" cont="0"/>
    </junction>

    <connection from="-gneE4" to="-gneE9" fromLane="0" toLane="0" via=":gneJ6_8_0" tl="gneJ6" linkIndex="8" dir="r" state="O"/>
    <connection from="-gneE4" to="-gneE9" fromLane="0" toLane="1" via=":gneJ6_9_0" tl="gneJ6" linkIndex="9" dir="r" state="O"/>
    <connection from="-gneE4" to="-gneE8" fromLane="0" toLane="0" via=":gneJ6_10_0" tl="gneJ6" linkIndex="10" dir="s" state="O"/>
    <connection from="-gneE4" to="-gneE8" fromLane="1" toLane="1" via=":gneJ6_10_1" tl="gneJ6" linkIndex="11" dir="s" state="O"/>
    <connection from="gneE4" to="-gneE5" fromLane="0" toLane="0" via=":gneJ7_0_0" tl="gneJ7" linkIndex="0" dir="s" state="O"/>
    <connection from="gneE4" to="-gneE5" fromLane="1" toLane="1" via=":gneJ7_0_1" tl="gneJ7" linkIndex="1" dir="s" state="O"/>
    <connection from="gneE5" to="-gneE4" fromLane="0" toLane="0" via=":gneJ7_2_0" tl="gneJ7" linkIndex="2" dir="s" state="O"/>
    <connection from="gneE5" to="-gneE6" fromLane="1" toLane="0" via=":gneJ7_3_0" tl="gneJ7" linkIndex="3" dir="l" state="o"/>
    <connection from="gneE5" to="-gneE6" fromLane="1" toLane="1" via=":gneJ7_4_0" tl="gneJ7" linkIndex="4" dir="l" state="o"/>
    <connection from="gneE6" to="-gneE5" fromLane="0" toLane="0" via=":gneJ7_5_0" tl="gneJ7" linkIndex="5" dir="r" state="o"/>
    <connection from="gneE6" to="-gneE5" fromLane="1" toLane="1" via=":gneJ7_6_0" tl="gneJ7" linkIndex="6" dir="r" state="o"/>
    <connection from="gneE6" to="-gneE4" fromLane="1" toLane="0" via=":gneJ7_7_0" tl="gneJ7" linkIndex="7" dir="l" state="o"/>
    <connection from="gneE6" to="-gneE4" fromLane="1" toLane="1" via=":gneJ7_8_0" tl="gneJ7" linkIndex="8" dir="l" state="o"/>
    <connection from="gneE8" to="gneE4" fromLane="0" toLane="0" via=":gneJ6_0_0" tl="gneJ6" linkIndex="0" dir="s" state="O"/>
    <connection from="gneE8" to="gneE4" fromLane="1" toLane="1" via=":gneJ6_0_1" tl="gneJ6" linkIndex="1" dir="s" state="O"/>
    <connection from="gneE8" to="-gneE9" fromLane="1" toLane="0" via=":gneJ6_2_0" tl="gneJ6" linkIndex="3" dir="l" state="o"/>
    <connection from="gneE8" to="-gneE9" fromLane="1" toLane="1" via=":gneJ6_3_0" tl="gneJ6" linkIndex="2" dir="l" state="o"/>
    <connection from="gneE9" to="-gneE8" fromLane="0" toLane="0" via=":gneJ6_4_0" tl="gneJ6" linkIndex="4" dir="r" state="o"/>
    <connection from="gneE9" to="-gneE8" fromLane="0" toLane="1" via=":gneJ6_5_0" tl="gneJ6" linkIndex="5" dir="r" state="o"/>
    <connection from="gneE9" to="gneE4" fromLane="1" toLane="0" via=":gneJ6_6_0" tl="gneJ6" linkIndex="6" dir="l" state="o"/>
    <connection from="gneE9" to="gneE4" fromLane="1" toLane="1" via=":gneJ6_7_0" tl="gneJ6" linkIndex="7" dir="l" state="o"/>

    <connection from=":gneJ6_0" to="gneE4" fromLane="0" toLane="0" dir="s" state="M"/>
    <connection from=":gneJ6_0" to="gneE4" fromLane="1" toLane="1" dir="s" state="M"/>
    <connection from=":gneJ6_2" to="-gneE9" fromLane="0" toLane="0" dir="l" state="M"/>
    <connection from=":gneJ6_3" to="-gneE9" fromLane="0" toLane="1" dir="l" state="M"/>
    <connection from=":gneJ6_4" to="-gneE8" fromLane="0" toLane="0" dir="r" state="M"/>
    <connection from=":gneJ6_5" to="-gneE8" fromLane="0" toLane="1" dir="r" state="M"/>
    <connection from=":gneJ6_6" to="gneE4" fromLane="0" toLane="0" dir="l" state="M"/>
    <connection from=":gneJ6_7" to="gneE4" fromLane="0" toLane="1" dir="l" state="M"/>
    <connection from=":gneJ6_8" to="-gneE9" fromLane="0" toLane="0" dir="r" state="M"/>
    <connection from=":gneJ6_9" to="-gneE9" fromLane="0" toLane="1" dir="r" state="M"/>
    <connection from=":gneJ6_10" to="-gneE8" fromLane="0" toLane="0" dir="s" state="M"/>
    <connection from=":gneJ6_10" to="-gneE8" fromLane="1" toLane="1" dir="s" state="M"/>
    <connection from=":gneJ7_0" to="-gneE5" fromLane="0" toLane="0" dir="s" state="M"/>
    <connection from=":gneJ7_0" to="-gneE5" fromLane="1" toLane="1" dir="s" state="M"/>
    <connection from=":gneJ7_2" to="-gneE4" fromLane="0" toLane="0" dir="s" state="M"/>
    <connection from=":gneJ7_3" to="-gneE6" fromLane="0" toLane="0" dir="l" state="M"/>
    <connection from=":gneJ7_4" to="-gneE6" fromLane="0" toLane="1" dir="l" state="M"/>
    <connection from=":gneJ7_5" to="-gneE5" fromLane="0" toLane="0" dir="r" state="M"/>
    <connection from=":gneJ7_6" to="-gneE5" fromLane="0" toLane="1" dir="r" state="M"/>
    <connection from=":gneJ7_7" to="-gneE4" fromLane="0" toLane="0" dir="l" state="M"/>
    <connection from=":gneJ7_8" to="-gneE4" fromLane="0" toLane="1" dir="l" state="M"/>

</net>
